Circuit: *SAR Logic

Fatal Error: Multiple instances of "Plot"
